<?xml version="1.0" encoding="UTF-8"?>

<!-- generated on 2024-05-10 23:53:33.052242 by osmWebWizard.py v1_19_0+0000-baa66a0f364
<configuration>
    <net-file value="C:\Users\Jozsi\2024-05-10-23-50-50\osm.net.xml.gz"/>
    <output-trip-file value="C:\Users\Jozsi\2024-05-10-23-50-50\osm.passenger.trips.xml"/>
    <route-file value="C:\Users\Jozsi\2024-05-10-23-50-50\osm.passenger.rou.xml"/>
    <prefix value="veh"/>
    <trip-attributes value="departLane=&quot;best&quot;"/>
    <fringe-start-attributes value="departSpeed=&quot;max&quot;"/>
    <vehicle-class value="passenger"/>
    <lanes value="True"/>
    <fringe-factor value="5"/>
    <allow-fringe.min-length value="1000.0"/>
    <via-edge-types value="highway.motorway,highway.motorway_link,highway.trunk_link,highway.primary_link,highway.secondary_link,highway.tertiary_link"/>
    <min-distance value="300.0"/>
    <min-distance.fringe value="10.0"/>
    <remove-loops value="True"/>
    <validate value="True"/>
    <insertion-density value="30.0"/>
</configuration>
-->

<!-- generated on 2024-05-10 23:52:42 by Eclipse SUMO duarouter Version 1.19.0
<configuration xmlns:xsi="http://www.w3.org/2001/XMLSchema-instance" xsi:noNamespaceSchemaLocation="http://sumo.dlr.de/xsd/duarouterConfiguration.xsd">

    <input>
        <net-file value="C:\Users\Jozsi\2024-05-10-23-50-50\osm.net.xml.gz"/>
        <route-files value="C:\Users\Jozsi\2024-05-10-23-50-50\osm.passenger.trips.xml"/>
    </input>

    <output>
        <output-file value="C:\Users\Jozsi\2024-05-10-23-50-50\osm.passenger.trips.xml.tmp"/>
        <alternatives-output value="NUL"/>
        <write-trips value="true"/>
    </output>

    <processing>
        <remove-loops value="true"/>
    </processing>

    <time>
        <begin value="0.0"/>
        <end value="3600.0"/>
    </time>

    <report>
        <no-warnings value="true"/>
        <ignore-errors value="true"/>
        <no-step-log value="true"/>
    </report>

</configuration>
-->

<routes xmlns:xsi="http://www.w3.org/2001/XMLSchema-instance" xsi:noNamespaceSchemaLocation="http://sumo.dlr.de/xsd/routes_file.xsd">
    <vType id="veh_passenger" vClass="passenger"/>
    <trip id="veh0" type="veh_passenger" depart="0.00" departLane="best" from="23113353#2" to="-1071677316#0"/>
    <trip id="veh1" type="veh_passenger" depart="0.20" departLane="best" from="-41721026#2" to="29694935#3"/>
    <trip id="veh2" type="veh_passenger" depart="0.40" departLane="best" from="24817486#1" to="24689579#1"/>
    <trip id="veh3" type="veh_passenger" depart="0.60" departLane="best" from="696725615#0" to="176819416#2"/>
    <trip id="veh5" type="veh_passenger" depart="1.00" departLane="best" departSpeed="max" from="-287719345" to="-176819392#0"/>
    <trip id="veh6" type="veh_passenger" depart="1.21" departLane="best" from="-1070696653#0" to="-25123411#1"/>
    <trip id="veh7" type="veh_passenger" depart="1.41" departLane="best" from="23167294#7" to="195289252#13"/>
    <trip id="veh8" type="veh_passenger" depart="1.61" departLane="best" from="28790991#3" to="-23113309#2"/>
    <trip id="veh9" type="veh_passenger" depart="1.81" departLane="best" from="366888430" to="1025805688#5"/>
    <trip id="veh10" type="veh_passenger" depart="2.01" departLane="best" departSpeed="max" from="35145685#0" to="26446799#1"/>
    <trip id="veh11" type="veh_passenger" depart="2.21" departLane="best" departSpeed="max" from="-697003488" to="-23564122#3"/>
    <trip id="veh12" type="veh_passenger" depart="2.41" departLane="best" from="-867734151#15" to="-869087986"/>
    <trip id="veh13" type="veh_passenger" depart="2.61" departLane="best" from="176819354#1" to="-187653510"/>
    <trip id="veh14" type="veh_passenger" depart="2.81" departLane="best" from="-43394437#0" to="23295080#9"/>
    <trip id="veh15" type="veh_passenger" depart="3.01" departLane="best" from="356107055" to="30933594#2"/>
    <trip id="veh16" type="veh_passenger" depart="3.21" departLane="best" from="173470049#0" to="-932105547#2"/>
    <trip id="veh17" type="veh_passenger" depart="3.42" departLane="best" departSpeed="max" from="-857237689" to="-198516616#6"/>
    <trip id="veh18" type="veh_passenger" depart="3.62" departLane="best" from="42113685#4" to="-23564122#5"/>
    <trip id="veh19" type="veh_passenger" depart="3.82" departLane="best" from="5218414#5" to="23051398#1"/>
    <trip id="veh20" type="veh_passenger" depart="4.02" departLane="best" from="24037920#0" to="-122051163#3"/>
    <trip id="veh21" type="veh_passenger" depart="4.22" departLane="best" from="-28826896#5" to="695577125#1"/>
    <trip id="veh22" type="veh_passenger" depart="4.42" departLane="best" from="-172621172#1" to="-327057275#8"/>
    <trip id="veh23" type="veh_passenger" depart="4.62" departLane="best" from="-176819416#3" to="48892501#1"/>
    <trip id="veh24" type="veh_passenger" depart="4.82" departLane="best" from="23113314#12" to="1012543469#8"/>
    <trip id="veh25" type="veh_passenger" depart="5.02" departLane="best" from="-843913758" to="-28791023"/>
    <trip id="veh26" type="veh_passenger" depart="5.22" departLane="best" from="-379688017#0" to="857182904"/>
    <trip id="veh27" type="veh_passenger" depart="5.43" departLane="best" from="237463637#2" to="30914409#3"/>
    <trip id="veh28" type="veh_passenger" depart="5.63" departLane="best" departSpeed="max" from="-23295103#9" to="102991135#2"/>
    <trip id="veh29" type="veh_passenger" depart="5.83" departLane="best" from="972372649#2" to="23866174#1"/>
    <trip id="veh30" type="veh_passenger" depart="6.03" departLane="best" from="-176819417#3" to="24863952#2"/>
    <trip id="veh31" type="veh_passenger" depart="6.23" departLane="best" from="-43224282#0" to="41397971#2"/>
    <trip id="veh32" type="veh_passenger" depart="6.43" departLane="best" departSpeed="max" from="-28827674#4" to="-1087740788#0"/>
    <trip id="veh33" type="veh_passenger" depart="6.63" departLane="best" from="694379371#1" to="43224286#2"/>
    <trip id="veh34" type="veh_passenger" depart="6.83" departLane="best" from="-263287403" to="862993973#1"/>
    <trip id="veh35" type="veh_passenger" depart="7.03" departLane="best" from="669549322" to="-826606611"/>
    <trip id="veh36" type="veh_passenger" depart="7.23" departLane="best" from="23334109#1" to="-1076298698#1"/>
    <trip id="veh37" type="veh_passenger" depart="7.43" departLane="best" from="77392767" to="-141031941#4"/>
    <trip id="veh38" type="veh_passenger" depart="7.64" departLane="best" departSpeed="max" from="-379686806" to="-373199555#5"/>
    <trip id="veh39" type="veh_passenger" depart="7.84" departLane="best" from="-176819447#1" to="43224278#20"/>
    <trip id="veh40" type="veh_passenger" depart="8.04" departLane="best" from="-23041432#1" to="771239544#0"/>
    <trip id="veh41" type="veh_passenger" depart="8.24" departLane="best" from="-88597514#1" to="28875258#1"/>
    <trip id="veh42" type="veh_passenger" depart="8.44" departLane="best" departSpeed="max" from="983139562#0" to="176819418#10"/>
    <trip id="veh43" type="veh_passenger" depart="8.64" departLane="best" from="176819349#0" to="-122051171#12"/>
    <trip id="veh44" type="veh_passenger" depart="8.84" departLane="best" from="-176819456#0" to="23807602#2"/>
    <trip id="veh45" type="veh_passenger" depart="9.04" departLane="best" from="-327057275#5" to="1146824692#0"/>
    <trip id="veh46" type="veh_passenger" depart="9.24" departLane="best" from="141031941#1" to="103015885#3"/>
    <trip id="veh47" type="veh_passenger" depart="9.44" departLane="best" from="980074068#0" to="188438012#2"/>
    <trip id="veh48" type="veh_passenger" depart="9.64" departLane="best" from="907282307" to="696732565#0"/>
    <trip id="veh49" type="veh_passenger" depart="9.85" departLane="best" from="-102983644#1" to="28827674#4"/>
    <trip id="veh51" type="veh_passenger" depart="10.25" departLane="best" from="379687863#2" to="23902188#4"/>
    <trip id="veh52" type="veh_passenger" depart="10.45" departLane="best" departSpeed="max" from="-187896672" to="122051153#0"/>
    <trip id="veh53" type="veh_passenger" depart="10.65" departLane="best" departSpeed="max" from="1075561739" to="-87494109#4"/>
    <trip id="veh54" type="veh_passenger" depart="10.85" departLane="best" from="646778142#8" to="43224279#11"/>
    <trip id="veh55" type="veh_passenger" depart="11.05" departLane="best" from="1223289947" to="-24469782#2"/>
    <trip id="veh56" type="veh_passenger" depart="11.25" departLane="best" from="771239547#2" to="696765980"/>
    <trip id="veh57" type="veh_passenger" depart="11.45" departLane="best" from="-445666578#1" to="23866166#1"/>
    <trip id="veh58" type="veh_passenger" depart="11.65" departLane="best" from="23021241#3" to="-23564080#1"/>
    <trip id="veh59" type="veh_passenger" depart="11.85" departLane="best" from="28791034" to="191546342#1"/>
    <trip id="veh60" type="veh_passenger" depart="12.06" departLane="best" from="-294992665#8" to="188440206#1"/>
    <trip id="veh61" type="veh_passenger" depart="12.26" departLane="best" departSpeed="max" from="-1011046717" to="-845675065#16"/>
    <trip id="veh62" type="veh_passenger" depart="12.46" departLane="best" from="-103015969#22" to="844397639"/>
    <trip id="veh63" type="veh_passenger" depart="12.66" departLane="best" from="687431926" to="643543760"/>
    <trip id="veh64" type="veh_passenger" depart="12.86" departLane="best" from="642975887#4" to="-167612219#0"/>
    <trip id="veh65" type="veh_passenger" depart="13.06" departLane="best" departSpeed="max" from="671982407#0" to="867734151#0"/>
    <trip id="veh66" type="veh_passenger" depart="13.26" departLane="best" from="-173573991" to="173470047#8"/>
    <trip id="veh67" type="veh_passenger" depart="13.46" departLane="best" from="-167612221#2" to="356107055"/>
    <trip id="veh68" type="veh_passenger" depart="13.66" departLane="best" from="28812016#0" to="-23051406#1"/>
    <trip id="veh69" type="veh_passenger" depart="13.86" departLane="best" from="1101688078#0" to="-198075422#11"/>
    <trip id="veh70" type="veh_passenger" depart="14.07" departLane="best" departSpeed="max" from="-379686806" to="-696787025#0"/>
    <trip id="veh71" type="veh_passenger" depart="14.27" departLane="best" from="1012479085#0" to="-28800873#3"/>
    <trip id="veh72" type="veh_passenger" depart="14.47" departLane="best" from="173491404#0" to="30933594#4"/>
    <trip id="veh73" type="veh_passenger" depart="14.67" departLane="best" from="-24689578#1" to="-823430871#0"/>
    <trip id="veh74" type="veh_passenger" depart="14.87" departLane="best" from="980074058" to="23970063#2"/>
    <trip id="veh75" type="veh_passenger" depart="15.07" departLane="best" from="102983735#4" to="182275154#4"/>
    <trip id="veh76" type="veh_passenger" depart="15.27" departLane="best" from="-191417304#2" to="30914066#1"/>
    <trip id="veh77" type="veh_passenger" depart="15.47" departLane="best" departSpeed="max" from="-696980135" to="23113303#2"/>
    <trip id="veh78" type="veh_passenger" depart="15.67" departLane="best" from="-28875283#2" to="29062578#4"/>
    <trip id="veh79" type="veh_passenger" depart="15.87" departLane="best" departSpeed="max" from="-167636497" to="23823971#0"/>
    <trip id="veh80" type="veh_passenger" depart="16.07" departLane="best" departSpeed="max" from="-28827674#4" to="819543750#0"/>
    <trip id="veh81" type="veh_passenger" depart="16.28" departLane="best" from="50340061#2" to="173470047#6"/>
    <trip id="veh82" type="veh_passenger" depart="16.48" departLane="best" from="-30933890#1" to="24616223#8"/>
    <trip id="veh83" type="veh_passenger" depart="16.68" departLane="best" from="27290535#0" to="-23097422#1"/>
    <trip id="veh84" type="veh_passenger" depart="16.88" departLane="best" from="834153393#2" to="23033110#14"/>
    <trip id="veh85" type="veh_passenger" depart="17.08" departLane="best" from="109984758#1" to="42106908#1"/>
    <trip id="veh86" type="veh_passenger" depart="17.28" departLane="best" from="23902189#3" to="-24689572#1"/>
    <trip id="veh87" type="veh_passenger" depart="17.48" departLane="best" departSpeed="max" from="-176819377" to="1205155282"/>
    <trip id="veh88" type="veh_passenger" depart="17.68" departLane="best" from="1012543462#0" to="167410189"/>
    <trip id="veh89" type="veh_passenger" depart="17.88" departLane="best" from="-24689579#4" to="24670157#0"/>
    <trip id="veh90" type="veh_passenger" depart="18.08" departLane="best" from="949479466#3" to="-187900302#1"/>
    <trip id="veh91" type="veh_passenger" depart="18.28" departLane="best" from="-907361638" to="-87494109#3"/>
    <trip id="veh92" type="veh_passenger" depart="18.49" departLane="best" from="5218414#5" to="379856098#1"/>
    <trip id="veh93" type="veh_passenger" depart="18.69" departLane="best" from="24469782#2" to="1234853164"/>
    <trip id="veh94" type="veh_passenger" depart="18.89" departLane="best" departSpeed="max" from="-993134935" to="88696679#2"/>
    <trip id="veh95" type="veh_passenger" depart="19.09" departLane="best" from="-330339473#3" to="834161286"/>
    <trip id="veh96" type="veh_passenger" depart="19.29" departLane="best" from="-103015914#2" to="696734835"/>
    <trip id="veh97" type="veh_passenger" depart="19.49" departLane="best" departSpeed="max" from="176819370" to="122278262#5"/>
    <trip id="veh98" type="veh_passenger" depart="19.69" departLane="best" from="989391827#1" to="646778142#5"/>
    <trip id="veh99" type="veh_passenger" depart="19.89" departLane="best" from="88750729#1" to="838801533#1"/>
    <trip id="veh100" type="veh_passenger" depart="20.09" departLane="best" from="43401812#0" to="23866141#1"/>
    <trip id="veh101" type="veh_passenger" depart="20.29" departLane="best" departSpeed="max" from="1170957525" to="-28812506"/>
    <trip id="veh102" type="veh_passenger" depart="20.49" departLane="best" from="-88696678#4" to="-167612219#2"/>
    <trip id="veh103" type="veh_passenger" depart="20.70" departLane="best" departSpeed="max" from="-857237689" to="957524714#1"/>
    <trip id="veh104" type="veh_passenger" depart="20.90" departLane="best" departSpeed="max" from="-379686806" to="42106899#3"/>
    <trip id="veh105" type="veh_passenger" depart="21.10" departLane="best" from="1076298700#3" to="1167778574#0"/>
    <trip id="veh106" type="veh_passenger" depart="21.30" departLane="best" from="-867734151#2" to="980074069#1"/>
    <trip id="veh107" type="veh_passenger" depart="21.50" departLane="best" from="176819415" to="28826851#1"/>
    <trip id="veh108" type="veh_passenger" depart="21.70" departLane="best" from="-23137913#1" to="-696785636#1"/>
    <trip id="veh109" type="veh_passenger" depart="21.90" departLane="best" from="-504044514" to="23051410#0"/>
    <trip id="veh110" type="veh_passenger" depart="22.10" departLane="best" from="173573994" to="330753591"/>
    <trip id="veh111" type="veh_passenger" depart="22.30" departLane="best" from="-122278262#6" to="23097421#2"/>
    <trip id="veh112" type="veh_passenger" depart="22.50" departLane="best" from="1223297247#1" to="695579772#0"/>
    <trip id="veh113" type="veh_passenger" depart="22.71" departLane="best" from="23137922#1" to="88696674#1"/>
    <trip id="veh114" type="veh_passenger" depart="22.91" departLane="best" from="-172647790#1" to="-24616224#5"/>
    <trip id="veh115" type="veh_passenger" depart="23.11" departLane="best" from="198075422#5" to="-24689571#5"/>
    <trip id="veh116" type="veh_passenger" depart="23.31" departLane="best" from="-29695116#2" to="-23021236#0"/>
    <trip id="veh117" type="veh_passenger" depart="23.51" departLane="best" from="696526065#0" to="368960984#7"/>
    <trip id="veh118" type="veh_passenger" depart="23.71" departLane="best" from="198075422#10" to="23577962#5"/>
    <trip id="veh119" type="veh_passenger" depart="23.91" departLane="best" from="-97427014#3" to="23060080#3"/>
    <trip id="veh120" type="veh_passenger" depart="24.11" departLane="best" from="169338725" to="8516738#2"/>
    <trip id="veh121" type="veh_passenger" depart="24.31" departLane="best" from="247911544#6" to="288195081#0"/>
    <trip id="veh122" type="veh_passenger" depart="24.51" departLane="best" from="-31129728#0" to="-1076298698#2"/>
    <trip id="veh123" type="veh_passenger" depart="24.71" departLane="best" from="-862993973#0" to="698116514#0"/>
    <trip id="veh124" type="veh_passenger" depart="24.92" departLane="best" from="694379374#4" to="331482797#0"/>
    <trip id="veh126" type="veh_passenger" depart="25.32" departLane="best" from="825479316" to="983180208"/>
    <trip id="veh127" type="veh_passenger" depart="25.52" departLane="best" departSpeed="max" from="-170220072" to="-28812016#0"/>
    <trip id="veh128" type="veh_passenger" depart="25.72" departLane="best" departSpeed="max" from="-379686806" to="8466557#3"/>
    <trip id="veh129" type="veh_passenger" depart="25.92" departLane="best" from="-694702542" to="-697240628#1"/>
    <trip id="veh130" type="veh_passenger" depart="26.12" departLane="best" from="835762430#1" to="236473926#3"/>
    <trip id="veh131" type="veh_passenger" depart="26.32" departLane="best" from="42958112#1" to="275049576#0"/>
    <trip id="veh132" type="veh_passenger" depart="26.52" departLane="best" from="23033098#0" to="972372649#2"/>
    <trip id="veh133" type="veh_passenger" depart="26.72" departLane="best" from="-23295103#5" to="1025805701#0"/>
    <trip id="veh134" type="veh_passenger" depart="26.92" departLane="best" from="39948116#9" to="698116510#1"/>
    <trip id="veh135" type="veh_passenger" depart="27.13" departLane="best" from="23564080#4" to="857354170"/>
    <trip id="veh136" type="veh_passenger" depart="27.33" departLane="best" from="-23021229#1" to="-221336876#0"/>
    <trip id="veh137" type="veh_passenger" depart="27.53" departLane="best" from="-176819446#3" to="204261959"/>
    <trip id="veh139" type="veh_passenger" depart="27.93" departLane="best" from="24616219#8" to="-26446806#5"/>
    <trip id="veh140" type="veh_passenger" depart="28.13" departLane="best" from="23113303#4" to="-43224279#8"/>
    <trip id="veh141" type="veh_passenger" depart="28.33" departLane="best" from="122051151#0" to="81396814#2"/>
    <trip id="veh142" type="veh_passenger" depart="28.53" departLane="best" from="43224291#0" to="176819446#6"/>
    <trip id="veh143" type="veh_passenger" depart="28.73" departLane="best" from="-1012479086" to="-4830195#3"/>
    <trip id="veh144" type="veh_passenger" depart="28.93" departLane="best" from="1012543469#9" to="390154996"/>
    <trip id="veh145" type="veh_passenger" depart="29.13" departLane="best" from="23113341#1" to="43224278#14"/>
    <trip id="veh146" type="veh_passenger" depart="29.34" departLane="best" from="24863971#0" to="198516616#3"/>
    <trip id="veh147" type="veh_passenger" depart="29.54" departLane="best" from="1022358641#0" to="-102901794#7"/>
    <trip id="veh148" type="veh_passenger" depart="29.74" departLane="best" departSpeed="max" from="-170220141" to="698116510#2"/>
    <trip id="veh149" type="veh_passenger" depart="29.94" departLane="best" from="698321532#1" to="195289336#2"/>
    <trip id="veh150" type="veh_passenger" depart="30.14" departLane="best" from="-4300963#2" to="23051422#1"/>
    <trip id="veh151" type="veh_passenger" depart="30.34" departLane="best" from="-23051422#3" to="23051397#1"/>
    <trip id="veh152" type="veh_passenger" depart="30.54" departLane="best" from="-643530324#1" to="771239547#0"/>
    <trip id="veh153" type="veh_passenger" depart="30.74" departLane="best" from="-330339473#2" to="696732564"/>
    <trip id="veh154" type="veh_passenger" depart="30.94" departLane="best" from="698103213" to="-28791034"/>
    <trip id="veh155" type="veh_passenger" depart="31.14" departLane="best" from="-330339473#1" to="862950668"/>
    <trip id="veh156" type="veh_passenger" depart="31.34" departLane="best" from="-29694935#9" to="-698116513#2"/>
    <trip id="veh157" type="veh_passenger" depart="31.55" departLane="best" from="-930675573#0" to="236473922#2"/>
    <trip id="veh158" type="veh_passenger" depart="31.75" departLane="best" from="-23137912#3" to="-845675065#1"/>
    <trip id="veh160" type="veh_passenger" depart="32.15" departLane="best" from="368758301" to="698116508"/>
    <trip id="veh161" type="veh_passenger" depart="32.35" departLane="best" from="-1069024161#0" to="32550899#1"/>
    <trip id="veh162" type="veh_passenger" depart="32.55" departLane="best" from="-696744531#1" to="-845675065#14"/>
    <trip id="veh163" type="veh_passenger" depart="32.75" departLane="best" from="333922999" to="696734845"/>
    <trip id="veh164" type="veh_passenger" depart="32.95" departLane="best" from="368758301" to="43224284#3"/>
    <trip id="veh165" type="veh_passenger" depart="33.15" departLane="best" from="31532113#1" to="192201435#1"/>
    <trip id="veh166" type="veh_passenger" depart="33.35" departLane="best" from="645609883#3" to="696526065#5"/>
    <trip id="veh167" type="veh_passenger" depart="33.56" departLane="best" from="-28791488#1" to="4830224#6"/>
    <trip id="veh168" type="veh_passenger" depart="33.76" departLane="best" from="1085545419#1" to="72593090#4"/>
    <trip id="veh169" type="veh_passenger" depart="33.96" departLane="best" from="-330338975#0" to="30933890#2"/>
    <trip id="veh170" type="veh_passenger" depart="34.16" departLane="best" from="-1069024155#3" to="-247911544#0"/>
    <trip id="veh171" type="veh_passenger" depart="34.36" departLane="best" from="-88597514#1" to="-5218414#2"/>
    <trip id="veh172" type="veh_passenger" depart="34.56" departLane="best" from="-23137903#3" to="1082521500"/>
    <trip id="veh173" type="veh_passenger" depart="34.76" departLane="best" from="948728437#1" to="190249064#2"/>
    <trip id="veh174" type="veh_passenger" depart="34.96" departLane="best" from="-838801533#1" to="-221336876#0"/>
    <trip id="veh175" type="veh_passenger" depart="35.16" departLane="best" from="907282303" to="-24469782#2"/>
    <trip id="veh176" type="veh_passenger" depart="35.36" departLane="best" from="870797565#7" to="43224283#2"/>
    <trip id="veh177" type="veh_passenger" depart="35.56" departLane="best" from="-176819453#1" to="122051151#9"/>
    <trip id="veh178" type="veh_passenger" depart="35.77" departLane="best" from="-24689578#3" to="826602667#2"/>
    <trip id="veh179" type="veh_passenger" depart="35.97" departLane="best" from="23021236#11" to="176819428"/>
    <trip id="veh180" type="veh_passenger" depart="36.17" departLane="best" from="-864620725#3" to="-23051389#3"/>
    <trip id="veh181" type="veh_passenger" depart="36.37" departLane="best" departSpeed="max" from="-331343766#2" to="-28790991#12"/>
    <trip id="veh182" type="veh_passenger" depart="36.57" departLane="best" from="1012543462#0" to="835998878"/>
    <trip id="veh183" type="veh_passenger" depart="36.77" departLane="best" from="173491388#0" to="28826942#0"/>
    <trip id="veh184" type="veh_passenger" depart="36.97" departLane="best" from="24863971#3" to="24616234#2"/>
    <trip id="veh185" type="veh_passenger" depart="37.17" departLane="best" from="826606608" to="173470047#0"/>
    <trip id="veh186" type="veh_passenger" depart="37.37" departLane="best" from="23564092#1" to="-862984187"/>
    <trip id="veh187" type="veh_passenger" depart="37.57" departLane="best" departSpeed="max" from="-693836726" to="694702546#1"/>
    <trip id="veh188" type="veh_passenger" depart="37.77" departLane="best" from="24616223#17" to="698122502#0"/>
    <trip id="veh189" type="veh_passenger" depart="37.98" departLane="best" from="671982407#2" to="1090717873#0"/>
    <trip id="veh190" type="veh_passenger" depart="38.18" departLane="best" from="-903873885" to="696744530"/>
    <trip id="veh191" type="veh_passenger" depart="38.38" departLane="best" from="-195601955#3" to="1146528522"/>
    <trip id="veh192" type="veh_passenger" depart="38.58" departLane="best" from="-844391831#2" to="24689581#1"/>
    <trip id="veh193" type="veh_passenger" depart="38.78" departLane="best" from="-698124129" to="23564103#1"/>
    <trip id="veh194" type="veh_passenger" depart="38.98" departLane="best" from="4830224#8" to="195601947#3"/>
    <trip id="veh195" type="veh_passenger" depart="39.18" departLane="best" departSpeed="max" from="-1011046717" to="694379369#0"/>
    <trip id="veh196" type="veh_passenger" depart="39.38" departLane="best" from="1023908084#5" to="-23051415#2"/>
    <trip id="veh197" type="veh_passenger" depart="39.58" departLane="best" from="23295106#1" to="167410130#0"/>
    <trip id="veh198" type="veh_passenger" depart="39.78" departLane="best" from="-103015885#2" to="-28812506"/>
    <trip id="veh199" type="veh_passenger" depart="39.98" departLane="best" from="109984758#3" to="781785135#0"/>
    <trip id="veh200" type="veh_passenger" depart="40.19" departLane="best" from="-330339473#1" to="-23902208#7"/>
    <trip id="veh201" type="veh_passenger" depart="40.39" departLane="best" from="-173497858" to="176819447#1"/>
    <trip id="veh202" type="veh_passenger" depart="40.59" departLane="best" from="-23097437#0" to="868586923"/>
    <trip id="veh203" type="veh_passenger" depart="40.79" departLane="best" from="41337113#0" to="-331344681#1"/>
    <trip id="veh204" type="veh_passenger" depart="40.99" departLane="best" from="-236473926#3" to="696875474#1"/>
    <trip id="veh205" type="veh_passenger" depart="41.19" departLane="best" departSpeed="max" from="-24670158#1" to="1071324995#1"/>
    <trip id="veh206" type="veh_passenger" depart="41.39" departLane="best" from="32827866#0" to="170220133"/>
    <trip id="veh207" type="veh_passenger" depart="41.59" departLane="best" from="43402333" to="-173507686#1"/>
    <trip id="veh208" type="veh_passenger" depart="41.79" departLane="best" departSpeed="max" from="-957453335" to="23807618#6"/>
    <trip id="veh209" type="veh_passenger" depart="41.99" departLane="best" from="-24616223#12" to="401154937"/>
    <trip id="veh210" type="veh_passenger" depart="42.20" departLane="best" from="122051171#16" to="36595167#4"/>
    <trip id="veh211" type="veh_passenger" depart="42.40" departLane="best" from="23334117#18" to="1025805688#1"/>
    <trip id="veh212" type="veh_passenger" depart="42.60" departLane="best" from="26446799#2" to="379688568#2"/>
    <trip id="veh213" type="veh_passenger" depart="42.80" departLane="best" from="-176819445#1" to="1168517441"/>
    <trip id="veh214" type="veh_passenger" depart="43.00" departLane="best" from="-23823975#3" to="884090691"/>
    <trip id="veh215" type="veh_passenger" depart="43.20" departLane="best" from="167410131#1" to="122278262#2"/>
    <trip id="veh216" type="veh_passenger" depart="43.40" departLane="best" from="-330339327#1" to="694980559#1"/>
    <trip id="veh217" type="veh_passenger" depart="43.60" departLane="best" from="1076322294#7" to="43224282#2"/>
    <trip id="veh218" type="veh_passenger" depart="43.80" departLane="best" from="23564118#4" to="972372649#6"/>
    <trip id="veh219" type="veh_passenger" depart="44.00" departLane="best" from="198075422#9" to="869043948"/>
    <trip id="veh220" type="veh_passenger" depart="44.20" departLane="best" from="696725612#0" to="23349327#1"/>
    <trip id="veh221" type="veh_passenger" depart="44.41" departLane="best" from="24616223#12" to="176819387#4"/>
    <trip id="veh222" type="veh_passenger" depart="44.61" departLane="best" from="427224621" to="195601947#3"/>
    <trip id="veh223" type="veh_passenger" depart="44.81" departLane="best" from="697042873#1" to="330338975#1"/>
    <trip id="veh224" type="veh_passenger" depart="45.01" departLane="best" from="1101688076#0" to="4300963#0"/>
    <trip id="veh225" type="veh_passenger" depart="45.21" departLane="best" departSpeed="max" from="-330338646#1" to="-23866149#4"/>
    <trip id="veh226" type="veh_passenger" depart="45.41" departLane="best" from="28812016#0" to="183258617#4"/>
    <trip id="veh227" type="veh_passenger" depart="45.61" departLane="best" from="-23051417#2" to="-445665534#6"/>
    <trip id="veh228" type="veh_passenger" depart="45.81" departLane="best" departSpeed="max" from="-170220185#1" to="-671982407#1"/>
    <trip id="veh229" type="veh_passenger" depart="46.01" departLane="best" from="-41397971#1" to="838801533#0"/>
    <trip id="veh230" type="veh_passenger" depart="46.21" departLane="best" from="173507686#0" to="23137912#1"/>
    <trip id="veh231" type="veh_passenger" depart="46.41" departLane="best" from="-29062605#1" to="26264048#5"/>
    <trip id="veh232" type="veh_passenger" depart="46.62" departLane="best" from="-24408478#2" to="-170220173"/>
    <trip id="veh233" type="veh_passenger" depart="46.82" departLane="best" departSpeed="max" from="-932101059" to="193310787#5"/>
    <trip id="veh234" type="veh_passenger" depart="47.02" departLane="best" from="-957524714#0" to="-27847479#2"/>
    <trip id="veh235" type="veh_passenger" depart="47.22" departLane="best" departSpeed="max" from="-983180205" to="81396813#0"/>
    <trip id="veh236" type="veh_passenger" depart="47.42" departLane="best" from="-190282222" to="-26264053#1"/>
    <trip id="veh237" type="veh_passenger" depart="47.62" departLane="best" from="4830225#0" to="368960984#4"/>
    <trip id="veh238" type="veh_passenger" depart="47.82" departLane="best" departSpeed="max" from="-857354170" to="1025805688#2"/>
    <trip id="veh239" type="veh_passenger" depart="48.02" departLane="best" departSpeed="max" from="-698327178#1" to="332028238#0"/>
    <trip id="veh240" type="veh_passenger" depart="48.22" departLane="best" from="445666423#3" to="87206076#2"/>
    <trip id="veh241" type="veh_passenger" depart="48.42" departLane="best" from="-97427014#0" to="-330753590#7"/>
    <trip id="veh242" type="veh_passenger" depart="48.62" departLane="best" departSpeed="max" from="176819346" to="-23295080#4"/>
    <trip id="veh243" type="veh_passenger" depart="48.83" departLane="best" from="28790991#4" to="28875283#0"/>
    <trip id="veh244" type="veh_passenger" depart="49.03" departLane="best" from="102901794#2" to="1082521502#7"/>