<?xml version="1.0" encoding="UTF-8"?>

<!-- generated on 2024-03-05 23:59:06 by Eclipse SUMO polyconvert Version 1.19.0
<configuration xmlns:xsi="http://www.w3.org/2001/XMLSchema-instance" xsi:noNamespaceSchemaLocation="http://sumo.dlr.de/xsd/polyconvertConfiguration.xsd">

    <input>
        <net-file value="osm.net.xml.gz"/>
        <osm-files value="osm_bbox.osm.xml.gz"/>
        <osm.keep-full-type value="true"/>
        <type-file value="${SUMO_HOME}/data/typemap/osmPolyconvert.typ.xml"/>
    </input>

    <output>
        <output-file value="osm.poly.xml.gz"/>
    </output>

    <report>
        <verbose value="true"/>
    </report>

</configuration>
-->

<additional xmlns:xsi="http://www.w3.org/2001/XMLSchema-instance" xsi:noNamespaceSchemaLocation="http://sumo.dlr.de/xsd/additional_file.xsd">
    <location netOffset="-311192.58,-5155762.81" convBoundary="-1786.28,-1522.37,4083.21,1828.92" origBoundary="24.515390,46.514743,24.591048,46.545613" projParameter="+proj=utm +zone=35 +ellps=WGS84 +datum=WGS84 +units=m +no_defs"/>

    <poly id="1001451330" type="building.yes" color="255,230,230" fill="1" layer="-1.00" shape="2788.211351,1028.415895 2781.265378,1028.151271 2780.573232,1045.822730 2787.526853,1046.087117 2788.211351,1028.415895"/>
    <poly id="1051222144" type="building.house" color="255,230,230" fill="1" layer="-1.00" shape="2737.982230,718.808309 2728.426059,715.787970 2725.790420,725.667278 2735.146192,728.660411 2737.982230,718.808309"/>
    <poly id="105327074" type="building.yes" color="255,230,230" fill="1" layer="-1.00" shape="2690.076561,1030.422498 2682.046260,1030.335933 2681.869717,1045.300096 2689.900340,1045.397772 2690.076561,1030.422498"/>
    <poly id="105327075" type="building.yes" color="255,230,230" fill="1" layer="-1.00" shape="2678.644420,1022.788856 2673.900182,1022.745771 2673.748062,1034.761925 2678.446287,1034.806425 2678.644420,1022.788856"/>
    <poly id="105662729" type="amenity.hospital" color="237,199,199" fill="1" layer="-1.00" shape="1807.277145,1068.927092 1804.954723,1061.080149 1791.386465,1065.069737 1790.324067,1061.487989 1792.773026,1060.767208 1788.085675,1044.941183 1785.773692,1045.624365 1784.616985,1041.723001 1797.599372,1037.896098 1794.163029,1026.291053 1749.769644,1039.352757 1753.309071,1051.310493 1780.460618,1043.319592 1781.548774,1046.989517 1776.072940,1048.604664 1780.735601,1064.375836 1786.090118,1062.808930 1787.144164,1066.368692 1760.159679,1074.298793 1763.699415,1086.267646 1792.470553,1077.792958 1808.510740,1073.081885 1807.277145,1068.927092"/>
    <poly id="105662729#1" type="building.yes" color="255,230,230" fill="1" layer="-1.00" shape="1807.277145,1068.927092 1804.954723,1061.080149 1791.386465,1065.069737 1790.324067,1061.487989 1792.773026,1060.767208 1788.085675,1044.941183 1785.773692,1045.624365 1784.616985,1041.723001 1797.599372,1037.896098 1794.163029,1026.291053 1749.769644,1039.352757 1753.309071,1051.310493 1780.460618,1043.319592 1781.548774,1046.989517 1776.072940,1048.604664 1780.735601,1064.375836 1786.090118,1062.808930 1787.144164,1066.368692 1760.159679,1074.298793 1763.699415,1086.267646 1792.470553,1077.792958 1808.510740,1073.081885 1807.277145,1068.927092"/>
    <poly id="1066644469" type="building.yes" color="255,230,230" fill="1" layer="-1.00" shape="2585.272576,540.777139 2582.243454,577.016014 2595.055351,578.078598 2598.092216,541.839495 2592.059324,541.335637 2585.272576,540.777139"/>
    <poly id="1066644469#1" type="shop.interior_decoration" color="237,199,255" fill="1" layer="-1.00" shape="2585.272576,540.777139 2582.243454,577.016014 2595.055351,578.078598 2598.092216,541.839495 2592.059324,541.335637 2585.272576,540.777139"/>
    <poly id="1066644470" type="building.yes" color="255,230,230" fill="1" layer="-1.00" shape="2582.340401,576.924056 2579.950328,604.001200 2529.348032,599.764662 2534.736521,536.215957 2543.693520,536.963381 2544.239243,530.507094 2550.287831,531.021543 2556.213045,531.517552 2555.650805,538.185660 2572.526189,539.601337 2569.471059,575.740929 2582.340401,576.924056"/>
    <poly id="1066644470#1" type="shop.mall" color="237,199,255" fill="1" layer="-1.00" shape="2582.340401,576.924056 2579.950328,604.001200 2529.348032,599.764662 2534.736521,536.215957 2543.693520,536.963381 2544.239243,530.507094 2550.287831,531.021543 2556.213045,531.517552 2555.650805,538.185660 2572.526189,539.601337 2569.471059,575.740929 2582.340401,576.924056"/>
    <poly id="1066644471" type="building.yes" color="255,230,230" fill="1" layer="-1.00" shape="2572.477301,539.758547 2569.314479,575.890331 2582.228118,577.016486 2585.398683,540.884474 2579.141707,540.331919 2572.477301,539.758547"/>
    <poly id="1066644471#1" type="shop.convenience" color="237,199,255" fill="1" layer="-1.00" shape="2572.477301,539.758547 2569.314479,575.890331 2582.228118,577.016486 2585.398683,540.884474 2579.141707,540.331919 2572.477301,539.758547"/>
    <poly id="106692392" type="building.yes" color="255,230,230" fill="1" layer="-1.00" shape="2352.479870,1038.216837 2356.750287,1056.002374 2363.637922,1054.622288 2359.848799,1037.511462 2359.604749,1033.826558 2366.093861,1033.459719 2365.914518,1026.147124 2352.040359,1026.697111 2352.479870,1038.216837"/>
    <poly id="106692451" type="building.yes" color="255,230,230" fill="1" layer="-1.00" shape="2340.675318,1035.944859 2334.292998,1036.041511 2334.675314,1044.460027 2332.744172,1044.552925 2332.996355,1049.994818 2335.157858,1049.905941 2335.242516,1051.905249 2337.204325,1051.811407 2337.225404,1054.735783 2339.081924,1054.711917 2339.129008,1057.235107 2341.254912,1057.236303 2341.411550,1060.823806 2343.957443,1060.756447 2343.941530,1059.244377 2345.667020,1059.202309 2345.469580,1048.564862 2341.459564,1048.688475 2341.279080,1047.314939 2340.675318,1035.944859"/>
    <poly id="1072043428" type="leisure.playground" color="207,245,201" fill="1" layer="-2.00" shape="565.595318,1133.933682 538.439053,1110.655322 554.060579,1092.763251 580.736294,1115.889805 565.595318,1133.933682"/>
    <poly id="1072751855" type="leisure.playground" color="207,245,201" fill="1" layer="-2.00" shape="2034.994933,1015.102089 2030.411979,1000.151312 2040.979329,997.144675 2045.117550,1012.109190 2034.994933,1015.102089"/>
    <poly id="1073611037" type="amenity.parking" color="184,184,179" fill="1" layer="-1.00" shape="1705.634265,1320.265229 1683.580284,1296.023434 1706.123321,1273.060121 1729.700938,1296.442976 1705.634265,1320.265229"/>
    <poly id="1073611038" type="leisure.playground" color="207,245,201" fill="1" layer="-2.00" shape="1684.924792,1388.348772 1699.097394,1399.454789 1704.045176,1393.184712 1689.872570,1382.078683 1684.924792,1388.348772"/>
    <poly id="1076311682" type="building.yes" color="255,230,230" fill="1" layer="-1.00" shape="1147.461229,778.003805 1128.928949,758.559315 1133.924666,753.833232 1125.499189,744.985791 1110.930075,758.784081 1137.880177,787.076201 1147.461229,778.003805"/>
    <poly id="1076311683" type="building.yes" color="255,230,230" fill="1" layer="-1.00" shape="1145.329709,794.897351 1157.058399,783.800894 1159.161067,781.811583 1151.703871,773.990655 1147.461229,778.003805 1137.880177,787.076201 1145.329709,794.897351"/>
    <poly id="1076311684" type="building.yes" color="255,230,230" fill="1" layer="-1.00" shape="1152.580982,802.513343 1157.674248,807.860686 1163.020328,802.801222 1157.934730,797.453637 1152.580982,802.513343"/>
    <poly id="1090743250" type="landuse.grass" color="194,194,130" fill="1" layer="-3.00" shape="2213.802967,1299.061557 2220.747728,1278.894829 2222.819906,1276.161676 2225.340652,1276.028307 2227.107934,1276.596611 2228.655323,1278.495190 2224.866985,1302.468285 2213.802967,1299.061557"/>
    <poly id="1090743251" type="amenity.parking" color="184,184,179" fill="1" layer="-1.00" shape="2214.293022,1334.847477 2200.158306,1330.412209 2213.802967,1299.061557 2224.866985,1302.468285 2214.293022,1334.847477"/>
    <poly id="1092032740" type="natural.water" color="181,209,209" fill="1" layer="-4.00" shape="849.915130,1828.921804 859.095471,1825.544580 882.615497,1813.191218 889.760966,1809.276693 909.369563,1797.979229 912.498315,1796.180361 922.110086,1790.632178 935.061848,1783.167375 942.895095,1778.664331 949.197602,1775.031872 956.862478,1770.789882 976.314884,1759.397404 983.364177,1759.300806 1004.086444,1765.074607 1008.742334,1765.252559 1013.265435,1764.366932 1018.914854,1762.189558 1026.376130,1757.320032 1036.486113,1751.500767 1058.664183,1734.462977 1069.373368,1729.403703 1073.222852,1727.582550 1084.574747,1722.214183 1097.704501,1716.023243 1107.785702,1711.250459 1113.609622,1708.511665 1117.527786,1706.677289 1129.145327,1701.211790 1143.397812,1693.362315 1148.816859,1688.456226 1157.226860,1680.521154 1159.239950,1678.623577 1164.442110,1673.157016 1168.314363,1669.099717 1175.494299,1660.101769 1180.654614,1653.780136 1181.471136,1652.642613 1187.220842,1638.851024 1197.865607,1617.111136 1205.143639,1602.860649 1211.835430,1589.996351 1218.024442,1577.992921 1224.721722,1565.551104 1231.530585,1552.994615 1238.242138,1540.763690 1246.924937,1524.045126 1257.113152,1504.644005 1263.428984,1493.259528 1271.618750,1477.712974 1278.827105,1464.421242 1283.367495,1453.937105 1286.951009,1443.282446 1290.272068,1430.845302 1292.197052,1421.398745 1294.550906,1408.457742 1296.410456,1396.900057 1299.317928,1381.517322 1301.697999,1369.420774 1305.327969,1350.111864 1309.115274,1330.431058 1310.760787,1321.126638 1310.908974,1319.965369 1312.018871,1314.425629 1313.059767,1308.888029 1313.389387,1307.142797 1314.414518,1301.839246 1318.415392,1280.628132 1321.653077,1262.276761 1324.012506,1249.758239 1327.577735,1238.258923 1332.436209,1227.876201 1338.090760,1219.159337 1344.518314,1211.363881 1352.207870,1203.429225 1361.902806,1195.321215 1374.715854,1189.018439 1387.176871,1184.728538 1400.410103,1181.582534 1413.844603,1177.996571 1425.444968,1173.422003 1434.926883,1168.590547 1443.146036,1164.120757 1455.482121,1156.042315 1476.041668,1143.382805 1499.287342,1128.738352 1520.784738,1115.627334 1537.090620,1105.624415 1553.169143,1095.217074 1566.252335,1087.215844 1565.276816,1076.279894 1547.848818,1087.474139 1531.133895,1097.901197 1514.309721,1108.020275 1491.894255,1122.216323 1470.825177,1135.525499 1449.334492,1148.847814 1436.573604,1156.839330 1428.878914,1161.392979 1419.087204,1166.133944 1409.984306,1169.574570 1397.702122,1172.702206 1382.888301,1176.108507 1369.580778,1180.324551 1357.516851,1187.026752 1344.404965,1197.554019 1336.453350,1205.452320 1329.838669,1214.143335 1323.855363,1224.138292 1318.748182,1235.162677 1314.799941,1247.674842 1312.139866,1260.892245 1308.962078,1279.441960 1305.360190,1299.906669 1304.771678,1303.450551 1304.489529,1304.994118 1303.494298,1310.519182 1302.470812,1316.122976 1302.255690,1317.353052 1301.104279,1323.038666 1295.555766,1348.290535 1291.411440,1368.583004 1289.152506,1381.120676 1286.395210,1396.643346 1284.876218,1407.056044 1282.452261,1420.210541 1280.690281,1428.973613 1277.353048,1440.888535 1273.250527,1451.881829 1269.694447,1459.955369 1262.087514,1474.004638 1254.286707,1488.482564 1247.780078,1500.395697 1237.491095,1520.011276 1228.473560,1536.328726 1222.067482,1548.016338 1215.174043,1561.309506 1208.470229,1573.540222 1202.271579,1585.232547 1195.683688,1597.982414 1188.295235,1612.136242 1177.092304,1634.683121 1168.942013,1648.271153 1158.358808,1663.580729 1151.044531,1673.194573 1141.778547,1681.489872 1133.710416,1687.334561 1124.265423,1693.322087 1113.208378,1698.303078 1103.714451,1702.712845 1088.795362,1709.604381 1073.465761,1716.619918 1061.360819,1721.956074 1051.578853,1727.220136 1043.246297,1732.205653 1026.467878,1744.704920 1017.939763,1752.287956 1014.431624,1754.721374 1010.823393,1755.167078 1007.496516,1754.046977 985.992447,1751.022316 978.348981,1750.025171 965.720394,1754.310086 955.859600,1760.244075 945.441171,1766.506818 936.220676,1772.053927 926.038710,1777.775506 915.735826,1783.556471 905.191778,1789.478410 892.521030,1796.600891 878.598682,1803.450879 877.329022,1804.079797 871.962513,1806.715639 853.800128,1815.654917 842.024179,1820.947944 847.953634,1826.302379 849.915130,1828.921804"/>
    <poly id="1092037518" type="natural.water" color="181,209,209" fill="1" layer="-4.00" shape="1566.252335,1087.215844 1636.838675,1039.676377 1634.232088,1031.582476 1565.276816,1076.279894 1566.252335,1087.215844"/>
    <poly id="1092056216" type="natural.water" color="181,209,209" fill="1" layer="-4.00" shape="2801.867902,843.831408 2791.111144,839.947040 2756.107551,828.511571 2705.133171,811.862157 2658.853198,797.382019 2613.003456,783.422824 2599.265695,780.442423 2509.152332,759.694405 2451.046565,746.536471 2386.181797,730.984871 2314.893529,714.964657 2240.694385,697.400129 2219.418850,693.162716 2195.141167,693.366599 2152.313209,697.813093 2137.766793,699.485326 2100.010236,704.865645 2083.855614,711.625815 2055.943825,726.623197 2016.115331,748.661738 1976.266754,770.289671 1941.115442,789.181403 1914.556828,803.737294 1904.043412,812.225521 1890.678918,830.032966 1875.439264,848.999452 1860.111252,869.325574 1842.874507,894.192828 1829.552974,913.378210 1820.036668,923.326106 1808.044921,932.394066 1789.057655,944.814682 1749.051711,969.974725 1722.833255,986.556311 1694.614139,1004.701354 1663.004170,1023.629877 1636.838675,1039.676377 1634.232088,1031.582476 1648.790826,1022.646034 1666.645472,1011.338806 1686.696131,999.318636 1709.547260,985.532519 1736.025822,969.421068 1785.746206,938.243965 1799.634643,928.961617 1809.973536,921.045795 1818.196219,913.195407 1832.012682,894.628644 1848.557600,871.962614 1882.139466,826.893556 1894.982655,811.093002 1901.069985,804.420903 1911.440123,797.505274 1913.596345,796.248624 1926.901288,788.930943 1931.248193,786.538932 1938.546143,782.532076 1947.074717,777.864395 1957.429714,772.194960 1966.871352,767.020870 1975.241691,762.447093 1997.265061,750.389358 2006.004988,745.604021 2017.288472,739.427787 2029.900352,732.276331 2039.804354,726.910138 2054.238026,719.101914 2078.378842,706.011531 2086.172863,702.156379 2107.277601,694.887549 2137.467170,689.028973 2150.948415,686.166209 2162.518764,683.807303 2186.867928,680.942983 2201.342818,680.185063 2218.183209,680.722196 2236.786371,683.418244 2262.119854,688.331354 2317.532133,700.969988 2355.363363,709.713371 2376.364330,714.760480 2427.625976,726.471440 2466.638774,735.712940 2515.565965,747.396436 2560.747031,757.816552 2601.340090,766.798931 2618.517949,771.330596 2671.617906,787.947277 2728.889751,806.215553 2760.632467,816.427677 2795.165168,828.022238 2806.500429,832.000044 2859.313919,849.572463 2910.948639,866.758924 2943.660577,877.565002 2995.375007,894.115769 3022.848458,903.292578 3074.281649,920.697879 3122.812614,936.824720 3164.094133,951.061294 3187.190301,960.417645 3195.356161,964.170877 3203.563723,965.531681 3210.607513,964.981908 3302.517173,938.651433 3336.821347,932.594790 3373.640656,927.717992 3380.144882,926.840189 3492.006692,914.437085 3537.788359,906.995684 3575.770771,899.493169 3597.782434,895.004468 3602.746256,893.695841 3617.293955,888.568252 3645.935859,875.279738 3670.632639,860.221430 3687.107193,848.084032 3704.987989,834.246531 3722.210623,818.460699 3737.409933,803.014862 3742.717168,797.625339 3750.628617,788.552751 3759.174476,777.136352 3774.324535,758.066482 3789.609962,745.176130 3806.974267,737.771927 3825.933654,734.089226 3844.170939,730.384178 3864.665849,724.207900 3875.615479,718.857320 3888.166473,711.911909 3904.850871,700.335941 3914.327855,693.506789 3934.375541,677.713128 3948.749209,663.349659 3954.435451,654.278635 3970.216794,625.947983 3986.160559,594.387160 4010.222873,546.685656 4015.419951,538.930869 4031.721398,515.044284 4048.736789,493.671667 4067.242408,468.817034 4083.207930,475.391735 4061.210494,500.008176 4038.985729,527.478776 4022.855583,553.706764 4012.598557,572.448523 3997.553948,602.547111 3983.804100,630.304022 3975.047548,647.153836 3969.321232,656.170456 3958.803677,669.137062 3945.702139,682.182650 3923.375048,701.493629 3906.572926,714.240910 3892.145256,724.068532 3875.473919,732.051865 3858.622678,738.416992 3831.919969,744.126933 3804.311559,751.088070 3794.487727,755.603599 3782.132885,766.446901 3768.328073,783.329132 3748.868559,807.035109 3743.932242,812.758050 3720.827316,833.450477 3700.907832,848.885096 3681.158068,863.091214 3660.977346,876.754511 3644.381879,887.194080 3619.629260,898.417253 3595.806742,908.933635 3575.162274,914.459279 3539.644378,919.484048 3491.977311,926.504969 3380.221200,938.593441 3374.525308,939.301883 3339.107688,942.834469 3304.742403,948.648299 3212.098686,974.311729 3202.667451,975.090458 3192.205163,973.031447 3179.948134,968.258231 3155.967335,959.084763 3123.797902,947.171007 3086.648909,935.054402 3014.811206,910.979841 3001.446387,906.630255 2943.728986,888.284221 2864.807927,863.517035 2820.747185,850.046297 2801.867902,843.831408"/>
    <poly id="1095454546" type="amenity.parking" color="184,184,179" fill="1" layer="-1.00" shape="2645.437614,1505.804778 2642.091178,1501.548059 2648.798334,1496.314580 2652.137101,1500.571538 2645.437614,1505.804778"/>
    <poly id="1095454551" type="amenity.parking" color="184,184,179" fill="1" layer="-1.00" shape="1843.076707,1025.635384 1840.325434,1020.548775 1854.593926,1012.889705 1857.337865,1017.987669 1843.076707,1025.635384"/>
    <poly id="1101730282" type="building.yes" color="255,230,230" fill="1" layer="-1.00" shape="1695.307490,1520.544370 1689.850691,1517.799270 1687.450845,1522.333380 1717.623302,1541.864144 1719.126554,1538.859231 1715.253256,1536.198587 1717.554585,1531.456221 1695.307490,1520.544370"/>
    <poly id="1101730283" type="building.yes" color="255,230,230" fill="1" layer="-1.00" shape="1709.901424,1553.714229 1711.761641,1555.302716 1717.664693,1546.923304 1715.388409,1545.280956 1709.901424,1553.714229"/>
    <poly id="1101730284" type="building.yes" color="255,230,230" fill="1" layer="-1.00" shape="1711.761641,1555.302716 1726.359353,1565.528120 1742.086108,1576.530529 1747.989176,1568.151147 1732.097632,1557.031479 1717.664693,1546.923304 1711.761641,1555.302716"/>
    <poly id="110337439" type="building.yes" color="255,230,230" fill="1" layer="-1.00" shape="1534.498216,526.534266 1538.249690,538.874608 1543.846227,537.177682 1540.087096,524.837574 1534.498216,526.534266"/>
    <poly id="110337464" type="building.yes" color="255,230,230" fill="1" layer="-1.00" shape="1567.902049,1029.931723 1565.929132,1023.964749 1561.990526,1026.644693 1550.655464,1034.347127 1541.105707,1040.715299 1544.595362,1045.845659 1567.902049,1029.931723"/>
    <poly id="110337484" type="amenity.hospital" color="237,199,199" fill="1" layer="-1.00" shape="1550.655464,1034.347127 1541.105707,1040.715299 1533.398354,1045.858651 1532.075042,1046.744882 1529.035121,1048.952152 1526.649205,1045.511515 1523.004496,1048.015560 1513.300230,1034.024440 1513.011131,1033.610761 1509.452435,1028.482555 1518.591239,1022.227153 1519.282535,1021.749753 1540.443259,1007.170049 1552.507312,998.966792 1556.453601,996.286605 1557.310491,995.703987 1557.664854,996.738471 1558.735956,999.852799 1565.562121,1019.794293 1566.616505,1022.864652 1566.793685,1023.381895 1565.929132,1023.964749 1561.990526,1026.644693 1550.655464,1034.347127"/>
    <poly id="1118640253" type="building.yes" color="255,230,230" fill="1" layer="-1.00" shape="2105.919668,1226.540044 2112.497498,1229.551209 2110.454822,1233.985125 2117.180031,1237.047355 2112.671475,1246.873601 2110.017213,1245.665399 2109.053271,1247.752686 2098.404516,1242.887507 2105.919668,1226.540044"/>
    <poly id="1123208082" type="building.house" color="255,230,230" fill="1" layer="-1.00" shape="582.329794,1307.671824 581.722468,1321.448594 600.058580,1322.246006 600.288482,1317.056018 588.046508,1316.524959 588.423956,1307.938180 582.329794,1307.671824"/>
    <poly id="1123208083" type="building.house" color="255,230,230" fill="1" layer="-1.00" shape="587.811369,1327.465167 587.721981,1331.004734 591.930779,1331.107323 592.825013,1329.755982 594.194197,1328.623424 595.889425,1328.103549 597.695615,1328.436614 599.844789,1329.926813 599.777660,1332.208904 605.784347,1332.377900 606.000850,1325.030668 609.342238,1325.126894 608.882747,1341.190182 602.968419,1341.029432 603.042992,1338.246621 588.118638,1337.832398 588.100703,1338.489152 581.464978,1338.328628 581.728697,1327.320798 584.870051,1327.400991 587.811369,1327.465167"/>
    <poly id="1123208084" type="building.house" color="255,230,230" fill="1" layer="-1.00" shape="577.654355,1358.911633 585.709836,1359.072457 585.675982,1360.697317 598.937985,1360.963063 595.066580,1369.235932 590.344120,1369.149327 590.413964,1365.721589 577.528345,1365.466392 577.654355,1358.911633"/>
    <poly id="1123208085" type="building.house" color="255,230,230" fill="1" layer="-1.00" shape="592.370032,1411.316384 584.404584,1420.951206 576.080023,1414.114460 579.082836,1410.484222 584.107124,1414.598698 585.512320,1412.897795 582.771957,1410.658585 583.733389,1409.494224 582.567561,1408.529528 585.148579,1405.401787 592.370032,1411.316384"/>
    <poly id="1123208095" type="building.house" color="255,230,230" fill="1" layer="-1.00" shape="2478.448494,803.670085 2491.271573,806.355854 2493.837320,794.220856 2480.699363,791.778336 2478.448494,803.670085"/>
    <poly id="1123208096" type="building.house" color="255,230,230" fill="1" layer="-1.00" shape="2478.448494,803.670085 2477.243548,809.401535 2479.174830,809.809162 2477.955919,815.585530 2484.297925,816.913868 2484.592522,815.514576 2489.134624,816.464610 2491.271573,806.355854 2478.448494,803.670085"/>
    <poly id="1123208097" type="building.house" color="255,230,230" fill="1" layer="-1.00" shape="2463.631982,835.434204 2467.169960,836.426274 2467.992389,833.475920 2475.011933,835.372830 2471.608357,848.212075 2460.852180,845.351464 2463.631982,835.434204"/>
    <poly id="1123208098" type="building.house" color="255,230,230" fill="1" layer="-1.00" shape="2475.011933,835.372830 2480.226784,836.735883 2479.793692,838.372998 2483.190226,839.258217 2480.220068,850.471452 2471.608357,848.212075 2475.011933,835.372830"/>
    <poly id="1123208099" type="building.house" color="255,230,230" fill="1" layer="-1.00" shape="2516.146335,800.885280 2518.312902,791.487416 2508.936959,789.585169 2506.824560,798.747812 2516.146335,800.885280"/>
    <poly id="1123208100" type="building.house" color="255,230,230" fill="1" layer="-1.00" shape="2499.445498,834.520174 2508.544317,836.397572 2509.210232,836.588377 2510.768343,828.866387 2512.181438,829.145400 2512.301662,828.563366 2515.336589,829.170573 2517.180277,820.005086 2510.237813,818.617353 2509.692904,821.358962 2502.495354,819.912363 2499.445498,834.520174"/>
    <poly id="1123208101" type="building.house" color="255,230,230" fill="1" layer="-1.00" shape="2499.445498,834.520174 2497.986815,841.482826 2506.745855,843.292834 2507.006566,842.039169 2510.853085,842.832692 2511.408740,840.190847 2507.901988,839.464712 2508.544317,836.397572 2499.445498,834.520174"/>
    <poly id="1123208102" type="building.house" color="255,230,230" fill="1" layer="-1.00" shape="2494.917950,856.469366 2496.734893,847.682833 2511.139648,850.642455 2509.322343,859.417872 2498.470700,857.194076 2494.917950,856.469366"/>
    <poly id="1123208103" type="building.construction" color="255,230,230" fill="1" layer="-1.00" shape="2508.936959,789.585169 2512.765051,770.838355 2526.952542,773.715741 2523.124409,792.462545 2518.312902,791.487416 2508.936959,789.585169"/>
    <poly id="1123215012" type="building.house" color="255,230,230" fill="1" layer="-1.00" shape="795.553845,1180.645135 802.835144,1187.003001 806.022569,1183.378276 803.995110,1181.606173 811.244315,1173.350821 807.678921,1170.247396 804.797146,1170.125649 795.553845,1180.645135"/>
    <poly id="1123215013" type="building.house" color="255,230,230" fill="1" layer="-1.00" shape="812.557425,1195.598370 815.784204,1198.178468 825.227898,1186.451616 821.993105,1183.860640 812.557425,1195.598370"/>
    <poly id="1123215014" type="building.house" color="255,230,230" fill="1" layer="-1.00" shape="830.299493,1190.853995 835.908680,1195.762402 821.394260,1212.251311 826.135529,1216.397025 821.754791,1221.382338 811.396670,1212.328475 830.299493,1190.853995"/>
    <poly id="1123215015" type="building.house" color="255,230,230" fill="1" layer="-1.00" shape="841.379299,1200.163511 848.185921,1206.313739 844.527537,1210.342345 840.658052,1206.836841 837.044296,1210.819576 834.106814,1208.163746 841.379299,1200.163511"/>
    <poly id="1123215016" type="building.house" color="255,230,230" fill="1" layer="-1.00" shape="864.839593,1194.451884 868.567680,1197.605895 867.079050,1199.342682 869.451435,1201.348770 871.539704,1198.903792 879.477024,1205.630629 872.642218,1213.639460 859.017492,1201.461657 864.839593,1194.451884"/>
    <poly id="1123215017" type="building.house" color="255,230,230" fill="1" layer="-1.00" shape="859.017492,1201.461657 856.615470,1199.489859 856.163998,1200.026619 851.918477,1196.521671 852.510101,1195.802605 849.634922,1193.422880 856.167179,1185.556886 865.697571,1193.413130 864.839593,1194.451884 859.017492,1201.461657"/>
    <poly id="1123215018" type="building.house" color="255,230,230" fill="1" layer="-1.00" shape="835.720328,1183.033640 843.696507,1174.955932 846.046456,1177.474318 843.813273,1179.701369 846.031223,1181.923565 840.462227,1187.446273 835.720328,1183.033640"/>
    <poly id="1123215019" type="building.house" color="255,230,230" fill="1" layer="-1.00" shape="835.720328,1183.033640 827.527500,1175.002409 832.125309,1170.332893 834.571486,1172.737065 837.949511,1169.317752 843.696507,1174.955932 835.720328,1183.033640"/>
    <poly id="1123215020" type="building.house" color="255,230,230" fill="1" layer="-1.00" shape="812.347113,1163.151096 822.875955,1150.778810 828.802993,1155.788554 818.274149,1168.160829 812.347113,1163.151096"/>
    <poly id="1130765231" type="building.yes" color="255,230,230" fill="1" layer="-1.00" shape="1332.149277,1342.418245 1338.257554,1341.906381 1337.727346,1335.694560 1336.709011,1335.770611 1336.380431,1331.854770 1343.039711,1331.292468 1349.843990,1334.418143 1351.191355,1350.158335 1332.943908,1351.713753 1332.149277,1342.418245"/>
    <poly id="1175752275" type="amenity.parking" color="184,184,179" fill="1" layer="-1.00" shape="2282.660189,1523.621898 2285.914490,1526.624512 2315.089185,1509.887410 2318.799344,1507.515286 2315.146380,1504.524947 2304.858313,1510.091672 2292.078360,1517.470262 2284.321641,1522.502967 2282.660189,1523.621898"/>
    <poly id="135724716" type="building.residential" color="255,230,230" fill="1" layer="-1.00" shape="1235.749678,1573.973127 1230.560780,1573.933865 1236.122646,1563.729413 1243.480983,1568.394840 1247.117074,1568.348807 1247.253186,1573.727585 1235.749678,1573.973127"/>
    <poly id="135725617" type="building.yes" color="255,230,230" fill="1" layer="-1.00" shape="1244.019866,1311.829361 1248.996716,1313.932773 1256.147635,1297.050437 1256.963108,1295.134429 1247.258862,1291.053321 1244.498185,1297.556261 1246.714307,1298.488510 1244.325445,1304.112413 1246.844714,1305.168723 1244.019866,1311.829361"/>
    <poly id="135725852" type="building.yes" color="255,230,230" fill="1" layer="-1.00" shape="1244.319289,1125.472791 1239.951458,1121.482012 1244.539618,1116.490595 1249.152371,1120.707343 1244.564210,1125.698756 1244.319289,1125.472791"/>
    <poly id="135726021" type="building.yes" color="255,230,230" fill="1" layer="-1.00" shape="1293.096537,1016.945726 1295.006817,1018.654888 1302.142204,1010.414826 1297.714899,1005.992093 1296.179062,1007.696862 1294.110954,1005.848008 1295.016070,1004.841224 1291.440770,1001.659979 1284.555834,1009.313951 1293.096537,1016.945726"/>
    <poly id="135726302" type="building.yes" color="255,230,230" fill="1" layer="-1.00" shape="1042.696536,667.978052 1046.989506,672.015524 1054.361530,664.223833 1050.992599,661.025186 1050.038923,660.220641 1042.696536,667.978052"/>
    <poly id="135726340" type="building.yes" color="255,230,230" fill="1" layer="-1.00" shape="1094.696572,726.856327 1087.508774,734.152891 1090.705081,737.479253 1097.982134,730.090948 1094.696572,726.856327"/>
    <poly id="150774728" type="building.yes" color="255,230,230" fill="1" layer="-1.00" shape="977.757782,877.895797 967.268910,889.109840 972.000258,894.167980 983.055229,882.647198 982.068490,881.765839 977.757782,877.895797"/>
    <poly id="164734432" type="building.yes" color="255,230,230" fill="1" layer="-1.00" shape="1492.319587,680.643158 1486.301320,681.852716 1488.384884,692.131524 1485.768585,692.657410 1486.857307,698.073407 1488.535280,697.732282 1489.550960,702.772398 1496.507185,701.366972 1492.319587,680.643158"/>
    <poly id="164734433" type="building.yes" color="255,230,230" fill="1" layer="-1.00" shape="1607.153350,631.956205 1601.564151,629.671231 1604.173963,623.973943 1600.125797,622.130645 1602.902003,616.105674 1603.974271,616.528489 1612.839835,621.014306 1607.153350,631.956205"/>
    <poly id="164734434" type="building.yes" color="255,230,230" fill="1" layer="-1.00" shape="1433.809233,571.281012 1435.082541,567.537997 1423.796922,563.727965 1419.766944,575.608593 1425.545312,577.553891 1428.310007,569.427157 1433.809233,571.281012"/>
    <poly id="164734435" type="building.yes" color="255,230,230" fill="1" layer="-1.00" shape="1442.448441,597.694780 1439.748573,604.940873 1446.645100,607.552235 1446.027543,609.172908 1452.838682,611.753556 1453.917148,608.906328 1457.272359,610.181532 1459.578970,604.115421 1458.381592,603.618652 1442.448441,597.694780"/>